$# LS-DYNA Keyword file created by LS-PrePost(R) 2024/R2(4.11.3)-19Apr2024
$# Created on Mar-19-2026 (22:30:34)
*KEYWORD
*TITLE
$#                                                                         title
LS-DYNA keyword deck by LS-PrePost
*ELEMENT_SOLID
$#   eid     pid      n1      n2      n3      n4      n5      n6      n7      n8
  379420       8  898571  898572  898583  898582  898692  898693  898704  898703
  379421       8  898572  898573  898584  898583  898693  898694  898705  898704
  379422       8  898573  898574  898585  898584  898694  898695  898706  898705
  379423       8  898574  898575  898586  898585  898695  898696  898707  898706
  379424       8  898575  898576  898587  898586  898696  898697  898708  898707
  379425       8  898576  898577  898588  898587  898697  898698  898709  898708
  379426       8  898577  898578  898589  898588  898698  898699  898710  898709
  379427       8  898578  898579  898590  898589  898699  898700  898711  898710
  379428       8  898579  898580  898591  898590  898700  898701  898712  898711
  379429       8  898580  898581  898592  898591  898701  898702  898713  898712
  379430       8  898582  898583  898594  898593  898703  898704  898715  898714
  379431       8  898583  898584  898595  898594  898704  898705  898716  898715
  379432       8  898584  898585  898596  898595  898705  898706  898717  898716
  379433       8  898585  898586  898597  898596  898706  898707  898718  898717
  379434       8  898586  898587  898598  898597  898707  898708  898719  898718
  379435       8  898587  898588  898599  898598  898708  898709  898720  898719
  379436       8  898588  898589  898600  898599  898709  898710  898721  898720
  379437       8  898589  898590  898601  898600  898710  898711  898722  898721
  379438       8  898590  898591  898602  898601  898711  898712  898723  898722
  379439       8  898591  898592  898603  898602  898712  898713  898724  898723
$ ... 980 like lines cut
*NODE
$#   nid               x               y               z      tc      rc
  898571           -50.0          -100.0           -50.0       0       0
  898572           -40.0          -100.0           -50.0       0       0
  898573           -30.0          -100.0           -50.0       0       0
  898574           -20.0          -100.0           -50.0       0       0
  898575           -10.0          -100.0           -50.0       0       0
  898576             0.0          -100.0           -50.0       0       0
  898577            10.0          -100.0           -50.0       0       0
  898578            20.0          -100.0           -50.0       0       0
  898579            30.0          -100.0           -50.0       0       0
  898580            40.0          -100.0           -50.0       0       0
  898581            50.0          -100.0           -50.0       0       0
  898582           -50.0           -90.0           -50.0       0       0
  898583           -40.0           -90.0           -50.0       0       0
  898584           -30.0           -90.0           -50.0       0       0
  898585           -20.0           -90.0           -50.0       0       0
  898586           -10.0           -90.0           -50.0       0       0
  898587             0.0           -90.0           -50.0       0       0
  898588            10.0           -90.0           -50.0       0       0
  898589            20.0           -90.0           -50.0       0       0
  898590            30.0           -90.0           -50.0       0       0
$ ... 1311 like lines cut
*PART
$#                                                                         title
body_UAV
$#     pid     secid       mid     eosid      hgid      grav    adpopt      tmid
         8         8         8         0         0         0         0         0
*SECTION_SOLID_TITLE
Body_UAV
$#   secid    elform       aet    unused    unused    unused    cohoff   gaskeit
         8         1         0                                     0.0       0.0
*MAT_RIGID_TITLE
body_UAV
$#     mid        ro         e        pr         n    couple         m     alias
         81.75500E-6      0.02      0.35       0.0       0.0       0.0          
$#     cmo      con1      con2
       0.0         0         0
$#lco or a1        a2        a3        v1        v2        v3
       0.0       0.0       0.0       0.0       0.0       0.0
*INITIAL_VELOCITY_RIGID_BODY
$#     pid        vx        vy        vz       vxr       vyr       vzr      icid
         8       0.0      10.0       0.0       0.0       0.0       0.0         0
*SET_NODE_LIST_TITLE
Connection
$#     sid       da1       da2       da3       da4    solver       its         -
         8       0.0       0.0       0.0       0.0MECH               1          
$#    nid1      nid2      nid3      nid4      nid5      nid6      nid7      nid8
    898681    898802    898803    898682    898804    898683    898805    898684
    898806    898685    898807    898686    898808    898687    898809    898688
    898810    898689    898811    898690    898812    898691    898923    898924
    898925    898926    898927    898928    898929    898930    898931    898932
    898933    899044    899045    899046    899047    899048    899049    899050
    899051    899052    899053    899054    899165    899166    899167    899168
    899169    899170    899171    899172    899173    899174    899175    899286
    899287    899288    899289    899290    899291    899292    899293    899294
    899295    899296    899407    899408    899409    899410    899411    899412
    899413    899414    899415    899416    899417    899528    899529    899530
    899531    899532    899533    899534    899535    899536    899537    899538
    899649    899650    899651    899652    899653    899654    899655    899656
    899657    899658    899659    899770    899771    899772    899773    899774
    899775    899776    899777    899778    899779    899780    899891    899892
    899893    899894    899895    899896    899897    899898    899899    899900
    899901         0         0         0         0         0         0         0
*END
